data/Network_07R-10/scenario_4/case.raw
0,   100.00, 33, 0, 1, 60.00     / PSS(R)E-33.7    TUE, SEP 11 2018  20:32
 GO Competition Network Model 07
 GO Competition Network Model 07
     1,'A1          ', 345.0000,1,   1,   1,   1,1.00398, -16.8497,1.05000,0.95000,1.10000,0.90000
     2,'A2          ', 345.0000,1,   1,   1,   1,1.00401, -16.8585,1.05000,0.95000,1.10000,0.90000
     3,'A3          ', 345.0000,1,   1,   1,   1,1.00114, -17.9952,1.05000,0.95000,1.10000,0.90000
     4,'A4          ', 345.0000,1,   1,   1,   1,1.00116, -18.0002,1.05000,0.95000,1.10000,0.90000
     5,'A5          ', 345.0000,1,   1,   1,   1,1.00096, -17.2321,1.05000,0.95000,1.10000,0.90000
     6,'A6          ', 345.0000,1,   1,   1,   1,1.00098, -17.2456,1.05000,0.95000,1.10000,0.90000
     7,'A7          ', 345.0000,1,   1,   1,   1,0.99882, -16.9141,1.05000,0.95000,1.10000,0.90000
     8,'A8          ', 345.0000,1,   1,   1,   1,0.99884, -16.9194,1.05000,0.95000,1.10000,0.90000
     9,'A9          ', 345.0000,2,   1,   1,   1,1.00363, -14.9698,1.05000,0.95000,1.10000,0.90000
    10,'A10         ', 345.0000,2,   1,   1,   1,1.00358, -14.9218,1.05000,0.95000,1.10000,0.90000
    11,'A11         ', 138.0000,2,   1,   1,   1,1.00467, -17.3688,1.05000,0.95000,1.10000,0.90000
    12,'A12         ', 138.0000,2,   1,   1,   1,1.00127, -17.5266,1.05000,0.95000,1.10000,0.90000
    13,'A13         ', 138.0000,1,   1,   1,   1,1.00422, -17.1395,1.05000,0.95000,1.10000,0.90000
    14,'A14         ', 138.0000,1,   1,   1,   1,1.00128, -17.6678,1.05000,0.95000,1.10000,0.90000
    15,'A15         ', 138.0000,1,   1,   1,   1,1.00295, -17.3200,1.05000,0.95000,1.10000,0.90000
    16,'A16         ', 138.0000,1,   1,   1,   1,1.00295, -17.3197,1.05000,0.95000,1.10000,0.90000
    17,'A17         ', 138.0000,1,   1,   1,   1,1.00613, -17.3667,1.05000,0.95000,1.10000,0.90000
    18,'A18         ', 138.0000,1,   1,   1,   1,1.00576, -15.9384,1.05000,0.95000,1.10000,0.90000
    19,'A19         ', 138.0000,1,   1,   1,   1,1.00571, -15.9182,1.05000,0.95000,1.10000,0.90000
    20,'A20         ', 138.0000,2,   1,   1,   1,1.00697, -17.3092,1.05000,0.95000,1.10000,0.90000
    21,'A21         ', 138.0000,1,   1,   1,   1,0.98254, -19.6895,1.05000,0.95000,1.10000,0.90000
    22,'A22         ', 138.0000,1,   1,   1,   1,0.98267, -19.6866,1.05000,0.95000,1.10000,0.90000
    23,'A23         ', 138.0000,1,   1,   1,   1,1.00239, -19.2215,1.05000,0.95000,1.10000,0.90000
    24,'A24         ', 138.0000,2,   1,   1,   1,1.00540, -18.8914,1.05000,0.95000,1.10000,0.90000
    25,'A25         ', 138.0000,2,   1,   1,   1,1.00300, -17.4559,1.05000,0.95000,1.10000,0.90000
    26,'A26         ', 138.0000,2,   1,   1,   1,1.00305, -17.4573,1.05000,0.95000,1.10000,0.90000
    27,'A27         ', 138.0000,1,   1,   1,   1,1.00429, -17.2798,1.05000,0.95000,1.10000,0.90000
    28,'A28         ', 138.0000,1,   1,   1,   1,1.00455, -17.2663,1.05000,0.95000,1.10000,0.90000
    29,'A29         ', 138.0000,1,   1,   1,   1,1.00539, -16.7173,1.05000,0.95000,1.10000,0.90000
    30,'A30         ', 138.0000,1,   1,   1,   1,1.00541, -16.7160,1.05000,0.95000,1.10000,0.90000
    31,'A31         ', 138.0000,1,   1,   1,   1,0.98324, -20.7420,1.05000,0.95000,1.10000,0.90000
    32,'A32         ', 138.0000,2,   1,   1,   1,0.98321, -20.7765,1.05000,0.95000,1.10000,0.90000
    33,'A33         ', 138.0000,1,   1,   1,   1,1.00543, -15.3579,1.05000,0.95000,1.10000,0.90000
    34,'A34         ', 138.0000,1,   1,   1,   1,1.00568, -15.3464,1.05000,0.95000,1.10000,0.90000
    35,'A35         ', 138.0000,1,   1,   1,   1,1.00313, -17.3969,1.05000,0.95000,1.10000,0.90000
    36,'A36         ', 138.0000,1,   1,   1,   1,1.00397, -17.2124,1.05000,0.95000,1.10000,0.90000
    37,'A37         ', 138.0000,1,   1,   1,   1,1.00314, -17.3963,1.05000,0.95000,1.10000,0.90000
    38,'A38         ', 138.0000,1,   1,   1,   1,1.00397, -17.2124,1.05000,0.95000,1.10000,0.90000
    39,'A39         ', 138.0000,1,   1,   1,   1,0.99573, -24.6969,1.05000,0.95000,1.10000,0.90000
    40,'A40         ', 138.0000,1,   1,   1,   1,1.00407, -17.3077,1.05000,0.95000,1.10000,0.90000
    41,'A41         ', 138.0000,1,   1,   1,   1,1.00407, -17.3105,1.05000,0.95000,1.10000,0.90000
    42,'A42         ', 138.0000,1,   1,   1,   1,1.00741, -16.4381,1.05000,0.95000,1.10000,0.90000
    43,'A43         ', 138.0000,1,   1,   1,   1,1.00744, -16.4360,1.05000,0.95000,1.10000,0.90000
    44,'A44         ', 138.0000,1,   1,   1,   1,0.98063, -19.6259,1.05000,0.95000,1.10000,0.90000
    45,'A45         ', 138.0000,1,   1,   1,   1,0.98059, -19.6351,1.05000,0.95000,1.10000,0.90000
    46,'A46         ', 138.0000,2,   1,   1,   1,0.99759, -19.5268,1.05000,0.95000,1.10000,0.90000
    47,'A47         ', 138.0000,1,   1,   1,   1,0.98968, -19.0268,1.05000,0.95000,1.10000,0.90000
    48,'A48         ', 138.0000,1,   1,   1,   1,0.98954, -19.0294,1.05000,0.95000,1.10000,0.90000
    49,'A49         ', 138.0000,1,   1,   1,   1,0.99507, -25.6551,1.05000,0.95000,1.10000,0.90000
    50,'A50         ', 138.0000,1,   1,   1,   1,1.00024, -20.9848,1.05000,0.95000,1.10000,0.90000
    51,'A51         ', 138.0000,1,   1,   1,   1,1.00024, -20.9848,1.05000,0.95000,1.10000,0.90000
    52,'A52         ', 138.0000,1,   1,   1,   1,0.98387, -19.5887,1.05000,0.95000,1.10000,0.90000
    53,'A53         ', 138.0000,2,   1,   1,   1,0.99758, -19.1052,1.05000,0.95000,1.10000,0.90000
    54,'A54         ', 138.0000,1,   1,   1,   1,1.00344, -17.0074,1.05000,0.95000,1.10000,0.90000
    55,'A55         ', 138.0000,1,   1,   1,   1,1.00350, -17.0274,1.05000,0.95000,1.10000,0.90000
    56,'A56         ', 138.0000,1,   1,   1,   1,1.00029, -21.1102,1.05000,0.95000,1.10000,0.90000
    57,'A57         ', 138.0000,1,   1,   1,   1,1.00002, -21.0619,1.05000,0.95000,1.10000,0.90000
    58,'A58         ', 138.0000,1,   1,   1,   1,1.00267, -17.3774,1.05000,0.95000,1.10000,0.90000
    59,'A59         ', 138.0000,1,   1,   1,   1,1.00581, -17.0539,1.05000,0.95000,1.10000,0.90000
    60,'A60         ', 138.0000,1,   1,   1,   1,0.98555, -19.0487,1.05000,0.95000,1.10000,0.90000
    61,'A61         ', 138.0000,1,   1,   1,   1,0.98557, -19.0468,1.05000,0.95000,1.10000,0.90000
    62,'A62         ', 138.0000,1,   1,   1,   1,1.00578, -15.9375,1.05000,0.95000,1.10000,0.90000
    63,'A63         ', 138.0000,1,   1,   1,   1,1.00572, -15.9177,1.05000,0.95000,1.10000,0.90000
    64,'A64         ', 138.0000,1,   1,   1,   1,1.00343, -17.2167,1.05000,0.95000,1.10000,0.90000
    65,'A65         ', 138.0000,1,   1,   1,   1,1.00541, -16.7116,1.05000,0.95000,1.10000,0.90000
    66,'A66         ', 138.0000,1,   1,   1,   1,0.99793, -21.8134,1.05000,0.95000,1.10000,0.90000
    67,'A67         ', 138.0000,2,   1,   1,   1,0.99792, -21.8229,1.05000,0.95000,1.10000,0.90000
    68,'A68         ', 138.0000,2,   1,   1,   1,1.00858, -14.3678,1.05000,0.95000,1.10000,0.90000
    69,'A69         ', 138.0000,1,   1,   1,   1,0.99237, -18.9748,1.05000,0.95000,1.10000,0.90000
    70,'A70         ', 138.0000,1,   1,   1,   1,0.97720, -19.9501,1.05000,0.95000,1.10000,0.90000
    71,'B71         ', 345.0000,1,   2,   2,   1,0.99104, -14.0689,1.05000,0.95000,1.10000,0.90000
    72,'B72         ', 345.0000,1,   2,   2,   1,0.99104, -14.0689,1.05000,0.95000,1.10000,0.90000
    73,'B73         ', 345.0000,1,   2,   2,   1,1.00085, -11.9296,1.05000,0.95000,1.10000,0.90000
    74,'B74         ', 345.0000,1,   2,   2,   1,1.00085, -11.9296,1.05000,0.95000,1.10000,0.90000
    75,'B75         ', 345.0000,2,   2,   2,   1,1.00774, -13.9025,1.05000,0.95000,1.10000,0.90000
    76,'B76         ', 345.0000,2,   2,   2,   1,1.00788, -13.9011,1.05000,0.95000,1.10000,0.90000
    77,'B77         ', 500.0000,2,   2,   2,   1,1.00260, -16.3020,1.05000,0.95000,1.10000,0.90000
    78,'B78         ', 345.0000,2,   2,   2,   1,0.99160, -13.5850,1.05000,0.95000,1.10000,0.90000
    79,'B79         ', 345.0000,1,   2,   2,   1,0.99073, -13.2090,1.05000,0.95000,1.10000,0.90000
    80,'B80         ', 345.0000,1,   2,   2,   1,0.99073, -13.2090,1.05000,0.95000,1.10000,0.90000
    81,'B81         ', 345.0000,1,   2,   2,   1,0.99082, -14.0094,1.05000,0.95000,1.10000,0.90000
    82,'B82         ', 345.0000,1,   2,   2,   1,0.99082, -14.0071,1.05000,0.95000,1.10000,0.90000
    83,'B83         ', 138.0000,1,   2,   2,   1,0.97041, -14.9271,1.05000,0.95000,1.10000,0.90000
    84,'B84         ', 138.0000,1,   2,   2,   1,0.98014, -13.4805,1.05000,0.95000,1.10000,0.90000
    85,'B85         ', 138.0000,1,   2,   2,   1,1.00525, -12.7658,1.05000,0.95000,1.10000,0.90000
    86,'B86         ', 138.0000,1,   2,   2,   1,1.00021, -16.2176,1.05000,0.95000,1.10000,0.90000
    87,'B87         ', 138.0000,1,   2,   2,   1,0.97362,  -9.9782,1.05000,0.95000,1.10000,0.90000
    88,'B88         ', 138.0000,1,   2,   2,   1,0.98551,  -9.5327,1.05000,0.95000,1.10000,0.90000
    89,'B89         ', 138.0000,1,   2,   2,   1,0.98003, -14.6580,1.05000,0.95000,1.10000,0.90000
    90,'B90         ', 138.0000,2,   2,   2,   1,0.97824, -16.6575,1.05000,0.95000,1.10000,0.90000
    91,'B91         ', 138.0000,1,   2,   2,   1,0.99016,  -7.2210,1.05000,0.95000,1.10000,0.90000
    92,'B92         ', 138.0000,2,   2,   2,   1,1.00542, -12.7479,1.05000,0.95000,1.10000,0.90000
    93,'B93         ', 138.0000,1,   2,   2,   1,1.00542, -12.7479,1.05000,0.95000,1.10000,0.90000
    94,'B94         ', 138.0000,1,   2,   2,   1,0.96657, -14.4099,1.05000,0.95000,1.10000,0.90000
    95,'B95         ', 138.0000,2,   2,   2,   1,0.95654, -18.6881,1.05000,0.95000,1.10000,0.90000
    96,'B96         ', 138.0000,2,   2,   2,   1,0.97415, -15.0817,1.05000,0.95000,1.10000,0.90000
    97,'B97         ', 138.0000,1,   2,   2,   1,0.97396, -15.0917,1.05000,0.95000,1.10000,0.90000
    98,'B98         ', 138.0000,2,   2,   2,   1,1.00358, -11.1043,1.05000,0.95000,1.10000,0.90000
    99,'B99         ', 138.0000,2,   2,   2,   1,1.00788,  -9.6765,1.05000,0.95000,1.10000,0.90000
   100,'B100        ', 138.0000,1,   2,   2,   1,0.96563, -15.7351,1.05000,0.95000,1.10000,0.90000
   101,'B101        ', 138.0000,1,   2,   2,   1,0.99922, -13.2051,1.05000,0.95000,1.10000,0.90000
   102,'B102        ', 138.0000,1,   2,   2,   1,0.96804, -15.0685,1.05000,0.95000,1.10000,0.90000
   103,'B103        ', 138.0000,1,   2,   2,   1,1.00294, -11.2011,1.05000,0.95000,1.10000,0.90000
   104,'B104        ', 138.0000,1,   2,   2,   1,0.95763, -17.1736,1.05000,0.95000,1.10000,0.90000
   105,'B105        ', 138.0000,1,   2,   2,   1,1.00616, -12.8367,1.05000,0.95000,1.10000,0.90000
   106,'B106        ', 138.0000,1,   2,   2,   1,0.98522, -14.3322,1.05000,0.95000,1.10000,0.90000
   107,'B107        ', 138.0000,1,   2,   2,   1,0.97942, -12.5754,1.05000,0.95000,1.10000,0.90000
   108,'B108        ', 138.0000,1,   2,   2,   1,0.97273, -15.0708,1.05000,0.95000,1.10000,0.90000
   109,'B109        ', 138.0000,1,   2,   2,   1,0.98503, -14.5378,1.05000,0.95000,1.10000,0.90000
   110,'B110        ', 138.0000,1,   2,   2,   1,0.97443, -11.8950,1.05000,0.95000,1.10000,0.90000
   111,'B111        ', 138.0000,1,   2,   2,   1,0.96331, -16.0758,1.05000,0.95000,1.10000,0.90000
   112,'B112        ', 138.0000,2,   2,   2,   1,0.98680, -14.3895,1.05000,0.95000,1.10000,0.90000
   113,'B113        ', 138.0000,1,   2,   2,   1,0.97584,  -9.6707,1.05000,0.95000,1.10000,0.90000
   114,'B114        ', 138.0000,1,   2,   2,   1,0.97988, -13.6333,1.05000,0.95000,1.10000,0.90000
   115,'B115        ', 138.0000,1,   2,   2,   1,0.98453, -13.1150,1.05000,0.95000,1.10000,0.90000
   116,'B116        ', 138.0000,1,   2,   2,   1,0.95877, -16.5430,1.05000,0.95000,1.10000,0.90000
   117,'B117        ', 138.0000,1,   2,   2,   1,0.95854, -19.5584,1.05000,0.95000,1.10000,0.90000
   118,'B118        ', 138.0000,1,   2,   2,   1,0.97089, -15.0767,1.05000,0.95000,1.10000,0.90000
   119,'B119        ', 138.0000,1,   2,   2,   1,0.97144, -12.8234,1.05000,0.95000,1.10000,0.90000
   120,'B120        ', 138.0000,2,   2,   2,   1,0.98448, -14.3429,1.05000,0.95000,1.10000,0.90000
   121,'B121        ', 138.0000,1,   2,   2,   1,0.98436, -14.3477,1.05000,0.95000,1.10000,0.90000
   122,'B122        ', 138.0000,1,   2,   2,   1,0.96679, -15.2985,1.05000,0.95000,1.10000,0.90000
   123,'B123        ', 138.0000,1,   2,   2,   1,0.97591, -14.9541,1.05000,0.95000,1.10000,0.90000
   124,'B124        ', 138.0000,2,   2,   2,   1,0.97019, -14.8606,1.05000,0.95000,1.10000,0.90000
   125,'B125        ', 138.0000,2,   2,   2,   1,0.97002, -14.8526,1.05000,0.95000,1.10000,0.90000
   126,'B126        ', 138.0000,1,   2,   2,   1,0.98060, -14.1238,1.05000,0.95000,1.10000,0.90000
   127,'B127        ', 138.0000,2,   2,   2,   1,0.96206, -16.2209,1.05000,0.95000,1.10000,0.90000
   128,'B128        ', 138.0000,2,   2,   2,   1,0.96214, -16.2336,1.05000,0.95000,1.10000,0.90000
   129,'B129        ', 138.0000,1,   2,   2,   1,0.97407, -15.0859,1.05000,0.95000,1.10000,0.90000
   130,'B130        ', 138.0000,1,   2,   2,   1,0.97518,  -9.7150,1.05000,0.95000,1.10000,0.90000
   131,'B131        ', 138.0000,1,   2,   2,   1,0.98615, -14.4338,1.05000,0.95000,1.10000,0.90000
   132,'B132        ', 138.0000,1,   2,   2,   1,0.95890, -16.5961,1.05000,0.95000,1.10000,0.90000
   133,'B133        ', 138.0000,1,   2,   2,   1,0.95740, -16.6587,1.05000,0.95000,1.10000,0.90000
   134,'B134        ', 138.0000,1,   2,   2,   1,0.95794, -16.6155,1.05000,0.95000,1.10000,0.90000
   135,'B135        ', 138.0000,2,   2,   2,   1,1.00718,  -2.7867,1.05000,0.95000,1.10000,0.90000
   136,'B136        ', 138.0000,2,   2,   2,   1,0.97274, -14.8374,1.05000,0.95000,1.10000,0.90000
   137,'B137        ', 138.0000,1,   2,   2,   1,0.97354, -15.1221,1.05000,0.95000,1.10000,0.90000
   138,'B138        ', 138.0000,2,   2,   2,   1,0.95787, -19.2007,1.05000,0.95000,1.10000,0.90000
   139,'B139        ', 138.0000,1,   2,   2,   1,0.96999, -15.0417,1.05000,0.95000,1.10000,0.90000
   140,'B140        ', 138.0000,1,   2,   2,   1,1.00295, -14.0532,1.05000,0.95000,1.10000,0.90000
   141,'B141        ', 138.0000,1,   2,   2,   1,0.97280, -10.0821,1.05000,0.95000,1.10000,0.90000
   142,'B142        ', 138.0000,1,   2,   2,   1,0.95943, -16.5530,1.05000,0.95000,1.10000,0.90000
   143,'B143        ', 138.0000,1,   2,   2,   1,0.98524, -12.9795,1.05000,0.95000,1.10000,0.90000
   144,'B144        ', 138.0000,1,   2,   2,   1,0.97809, -14.7136,1.05000,0.95000,1.10000,0.90000
   145,'B145        ', 138.0000,1,   2,   2,   1,0.98596, -14.3585,1.05000,0.95000,1.10000,0.90000
   146,'B146        ', 138.0000,1,   2,   2,   1,0.97241, -15.2180,1.05000,0.95000,1.10000,0.90000
   147,'B147        ', 138.0000,1,   2,   2,   1,0.97795, -14.7225,1.05000,0.95000,1.10000,0.90000
   148,'B148        ', 138.0000,1,   2,   2,   1,0.96741, -15.3288,1.05000,0.95000,1.10000,0.90000
   149,'B149        ', 138.0000,1,   2,   2,   1,0.97050, -13.6794,1.05000,0.95000,1.10000,0.90000
   150,'B150        ', 345.0000,2,   2,   2,   1,1.00794, -14.6390,1.05000,0.95000,1.10000,0.90000
   151,'C151        ', 345.0000,1,   3,   3,   1,0.99301, -12.4351,1.05000,0.95000,1.10000,0.90000
   152,'C152        ', 500.0000,1,   3,   3,   1,0.99978, -11.5715,1.05000,0.95000,1.10000,0.90000
   153,'C153        ', 500.0000,2,   3,   3,   1,0.99976, -11.5657,1.05000,0.95000,1.10000,0.90000
   154,'C154        ', 500.0000,1,   3,   3,   1,0.99515, -15.3589,1.05000,0.95000,1.10000,0.90000
   155,'C155        ', 500.0000,1,   3,   3,   1,0.99520, -15.3291,1.05000,0.95000,1.10000,0.90000
   156,'C156        ', 500.0000,1,   3,   3,   1,1.00568, -20.4898,1.05000,0.95000,1.10000,0.90000
   157,'C157        ', 345.0000,2,   3,   3,   1,0.98915, -19.8352,1.05000,0.95000,1.10000,0.90000
   158,'C158        ', 500.0000,2,   3,   3,   1,0.96221, -20.0547,1.05000,0.95000,1.10000,0.90000
   159,'C159        ', 500.0000,1,   3,   3,   1,0.96221, -20.0547,1.05000,0.95000,1.10000,0.90000
   160,'C160        ', 500.0000,1,   3,   3,   1,0.98501, -14.4598,1.05000,0.95000,1.10000,0.90000
   161,'C161        ', 500.0000,2,   3,   3,   1,0.98475, -14.4548,1.05000,0.95000,1.10000,0.90000
   162,'C162        ', 500.0000,1,   3,   3,   1,0.99804, -13.7748,1.05000,0.95000,1.10000,0.90000
   163,'C163        ', 500.0000,1,   3,   3,   1,1.00758, -11.4556,1.05000,0.95000,1.10000,0.90000
   164,'C164        ', 500.0000,1,   3,   3,   1,1.00751, -11.4580,1.05000,0.95000,1.10000,0.90000
   165,'C165        ', 500.0000,2,   3,   3,   1,1.00430, -13.2281,1.05000,0.95000,1.10000,0.90000
   166,'C166        ', 500.0000,2,   3,   3,   1,1.00445, -13.2377,1.05000,0.95000,1.10000,0.90000
   167,'C167        ', 138.0000,1,   3,   3,   1,1.00257,  -6.9846,1.05000,0.95000,1.10000,0.90000
   168,'C168        ', 138.0000,2,   3,   3,   1,1.00081, -14.4044,1.05000,0.95000,1.10000,0.90000
   169,'C169        ', 138.0000,2,   3,   3,   1,1.00057, -14.3984,1.05000,0.95000,1.10000,0.90000
   170,'C170        ', 138.0000,1,   3,   3,   1,0.99981, -15.0771,1.05000,0.95000,1.10000,0.90000
   171,'C171        ', 138.0000,2,   3,   3,   1,1.00664,  -3.4556,1.05000,0.95000,1.10000,0.90000
   172,'C172        ', 138.0000,1,   3,   3,   1,0.97923, -18.7044,1.05000,0.95000,1.10000,0.90000
   173,'C173        ',  32.0000,1,   3,   3,   1,1.02987, -20.6298,1.05000,0.95000,1.10000,0.90000
   174,'C174        ', 138.0000,1,   3,   3,   1,0.99143, -15.7644,1.05000,0.95000,1.10000,0.90000
   175,'C175        ', 138.0000,1,   3,   3,   1,0.99441, -14.9596,1.05000,0.95000,1.10000,0.90000
   176,'C176        ', 138.0000,1,   3,   3,   1,0.99441, -14.9518,1.05000,0.95000,1.10000,0.90000
   177,'C177        ', 138.0000,2,   3,   3,   1,1.00733, -11.8786,1.05000,0.95000,1.10000,0.90000
   178,'C178        ', 138.0000,2,   3,   3,   1,1.00788, -11.7550,1.05000,0.95000,1.10000,0.90000
   179,'C179        ', 138.0000,1,   3,   3,   1,0.99255, -15.1705,1.05000,0.95000,1.10000,0.90000
   180,'C180        ', 138.0000,1,   3,   3,   1,0.99417, -14.9776,1.05000,0.95000,1.10000,0.90000
   181,'C181        ', 138.0000,1,   3,   3,   1,0.99136, -15.7413,1.05000,0.95000,1.10000,0.90000
   182,'C182        ', 138.0000,1,   3,   3,   1,0.99556, -14.8667,1.05000,0.95000,1.10000,0.90000
   183,'C183        ', 138.0000,2,   3,   3,   1,1.00718,  -3.0088,1.05000,0.95000,1.10000,0.90000
   184,'C184        ', 138.0000,1,   3,   3,   1,1.00695,  -3.5686,1.05000,0.95000,1.10000,0.90000
   185,'C185        ', 138.0000,2,   3,   3,   1,1.00980, -14.3357,1.05000,0.95000,1.10000,0.90000
   186,'C186        ', 138.0000,1,   3,   3,   1,0.99688, -14.7466,1.05000,0.95000,1.10000,0.90000
   187,'C187        ',  16.0000,1,   3,   3,   1,1.02159, -13.8895,1.05000,0.95000,1.10000,0.90000
   188,'C188        ', 138.0000,2,   3,   3,   1,1.00788, -10.3776,1.05000,0.95000,1.10000,0.90000
   189,'C189        ', 138.0000,1,   3,   3,   1,0.99295,  -7.1549,1.05000,0.95000,1.10000,0.90000
   190,'C190        ', 138.0000,1,   3,   3,   1,0.97930, -18.7056,1.05000,0.95000,1.10000,0.90000
   191,'C191        ', 138.0000,1,   3,   3,   1,0.99188, -15.2812,1.05000,0.95000,1.10000,0.90000
   192,'C192        ', 138.0000,1,   3,   3,   1,0.99879, -13.4278,1.05000,0.95000,1.10000,0.90000
   193,'C193        ', 138.0000,1,   3,   3,   1,0.99967, -14.0878,1.05000,0.95000,1.10000,0.90000
   194,'C194        ', 138.0000,2,   3,   3,   1,0.99111, -15.7886,1.05000,0.95000,1.10000,0.90000
   195,'C195        ', 138.0000,2,   3,   3,   1,1.00788,  -4.0506,1.05000,0.95000,1.10000,0.90000
   196,'C196        ', 138.0000,1,   3,   3,   1,0.99157,  -7.3448,1.05000,0.95000,1.10000,0.90000
   197,'C197        ', 138.0000,1,   3,   3,   1,0.99260,  -7.1875,1.05000,0.95000,1.10000,0.90000
   198,'C198        ', 138.0000,1,   3,   3,   1,1.00693,  -3.8007,1.05000,0.95000,1.10000,0.90000
   199,'C199        ', 138.0000,1,   3,   3,   1,0.99673,  -6.7132,1.05000,0.95000,1.10000,0.90000
   200,'C200        ', 138.0000,1,   3,   3,   1,0.99669,  -6.6082,1.05000,0.95000,1.10000,0.90000
...
0 / END OF BUS DATA, BEGIN LOAD DATA
     2,'99',0,   1,   1,    13.121,    -7.435,     0.000,     0.000,     0.000,     0.000,   1,1,0
     3,'1 ',1,   1,   1,     1.874,     1.288,     0.000,     0.000,     0.000,     0.000,   1,1,0
     4,'99',0,   1,   1,    26.870,    -9.742,     0.000,     0.000,     0.000,     0.000,   1,1,0
     6,'99',0,   1,   1,    79.520,    41.295,     0.000,     0.000,     0.000,     0.000,   1,1,0
     9,'1 ',1,   1,   1,    12.271,    25.089,     0.000,     0.000,     0.000,     0.000,   1,1,0
     9,'99',1,   1,   1,   136.924,   -94.967,     0.000,     0.000,     0.000,     0.000,   1,1,0
    10,'1 ',1,   1,   1,    27.995,    49.227,     0.000,     0.000,     0.000,     0.000,   1,1,0
    11,'1 ',1,   1,   1,     8.435,     5.064,     0.000,     0.000,     0.000,     0.000,   1,1,0
    12,'1 ',1,   1,   1,     1.349,     2.697,     0.000,     0.000,     0.000,     0.000,   1,1,0
    12,'99',1,   1,   1,    12.803,     4.511,     0.000,     0.000,     0.000,     0.000,   1,1,0
    13,'1 ',1,   1,   1,     4.268,     1.679,     0.000,     0.000,     0.000,     0.000,   1,1,0
    14,'1 ',1,   1,   1,     2.953,     0.661,     0.000,     0.000,     0.000,     0.000,   1,1,0
    14,'99',1,   1,   1,    10.831,     4.627,     0.000,     0.000,     0.000,     0.000,   1,1,0
    15,'1 ',1,   1,   1,     0.290,     0.067,     0.000,     0.000,     0.000,     0.000,   1,1,0
    17,'1 ',1,   1,   1,     7.201,     3.115,     0.000,     0.000,     0.000,     0.000,   1,1,0
    18,'1 ',1,   1,   1,     1.659,     0.539,     0.000,     0.000,     0.000,     0.000,   1,1,0
    19,'1 ',1,   1,   1,     1.011,     0.337,     0.000,     0.000,     0.000,     0.000,   1,1,0
    20,'1 ',1,   1,   1,     1.079,    -0.364,     0.000,     0.000,     0.000,     0.000,   1,1,0
    20,'99',1,   1,   1,    12.772,   -23.630,     0.000,     0.000,     0.000,     0.000,   1,1,0
    21,'1 ',1,   1,   1,     9.824,     2.090,     0.000,     0.000,     0.000,     0.000,   1,1,0
    23,'1 ',1,   1,   1,    26.970,     0.000,     0.000,     0.000,     0.000,     0.000,   1,1,0
    23,'99',1,   1,   1,     1.690,    -8.676,     0.000,     0.000,     0.000,     0.000,   1,1,0
    24,'1 ',1,   1,   1,     5.758,     3.385,     0.000,     0.000,     0.000,     0.000,   1,1,0
    25,'1 ',1,   1,   1,     0.000,    -0.270,     0.000,     0.000,     0.000,     0.000,   1,1,0
    26,'1 ',1,   1,   1,    23.875,     8.502,     0.000,     0.000,     0.000,     0.000,   1,1,0
    27,'1 ',1,   1,   1,     3.027,     1.011,     0.000,     0.000,     0.000,     0.000,   1,1,0
    29,'1 ',1,   1,   1,     6.412,     2.501,     0.000,     0.000,     0.000,     0.000,   1,1,0
    31,'1 ',1,   1,   1,     3.311,     1.153,     0.000,     0.000,     0.000,     0.000,   1,1,0
    32,'1 ',1,   1,   1,     4.753,     2.367,     0.000,     0.000,     0.000,     0.000,   1,1,0
    33,'1 ',1,   1,   1,     4.753,     3.115,     0.000,     0.000,     0.000,     0.000,   1,1,0
    35,'1 ',1,   1,   1,     1.079,     0.337,     0.000,     0.000,     0.000,     0.000,   1,1,0
    39,'1 ',1,   1,   1,     3.176,     0.324,     0.000,     0.000,     0.000,     0.000,   1,1,0
    39,'99',0,   1,   1,    12.258,    -0.483,     0.000,     0.000,     0.000,     0.000,   1,1,0
    41,'1 ',1,   1,   1,     1.153,     0.405,     0.000,     0.000,     0.000,     0.000,   1,1,0
    42,'1 ',1,   1,   1,     4.106,     0.607,     0.000,     0.000,     0.000,     0.000,   1,1,0
    43,'99',0,   1,   1,    14.328,     3.859,     0.000,     0.000,     0.000,     0.000,   1,1,0
    44,'1 ',1,   1,   1,     3.000,     0.526,     0.000,     0.000,     0.000,     0.000,   1,1,0
    44,'99',1,   1,   1,     7.685,     5.076,     0.000,     0.000,     0.000,     0.000,   1,1,0
    45,'1 ',1,   1,   1,     3.338,     1.537,     0.000,     0.000,     0.000,     0.000,   1,1,0
    46,'1 ',1,   1,   1,     6.271,     2.104,     0.000,     0.000,     0.000,     0.000,   1,1,0
    46,'99',1,   1,   1,    18.803,     8.417,     0.000,     0.000,     0.000,     0.000,   1,1,0
    47,'1 ',1,   1,   1,     7.895,     2.825,     0.000,     0.000,     0.000,     0.000,   1,1,0
    48,'1 ',1,   1,   1,     0.000,     0.101,     0.000,     0.000,     0.000,     0.000,   1,1,0
    49,'1 ',1,   1,   1,    12.083,     2.839,     0.000,     0.000,     0.000,     0.000,   1,1,0
    49,'99',0,   1,   1,    23.502,    -4.087,     0.000,     0.000,     0.000,     0.000,   1,1,0
    52,'1 ',1,   1,   1,    12.534,     3.992,     0.000,     0.000,     0.000,     0.000,   1,1,0
    53,'1 ',1,   1,   1,     5.340,     2.171,     0.000,     0.000,     0.000,     0.000,   1,1,0
    54,'1 ',1,   1,   1,     2.596,     1.423,     0.000,     0.000,     0.000,     0.000,   1,1,0
    55,'1 ',1,   1,   1,     0.216,     0.000,     0.000,     0.000,     0.000,     0.000,   1,1,0
    56,'1 ',1,   1,   1,     4.767,     1.767,     0.000,     0.000,     0.000,     0.000,   1,1,0
    57,'1 ',1,   1,   1,     2.812,     1.005,     0.000,     0.000,     0.000,     0.000,   1,1,0
    58,'1 ',1,   1,   1,     2.670,     0.937,     0.000,     0.000,     0.000,     0.000,   1,1,0
    58,'99',1,   1,   1,    30.943,    -4.899,     0.000,     0.000,     0.000,     0.000,   1,1,0
    59,'1 ',1,   1,   1,     4.470,     1.504,     0.000,     0.000,     0.000,     0.000,   1,1,0
    60,'1 ',1,   1,   1,     1.011,     0.270,     0.000,     0.000,     0.000,     0.000,   1,1,0
    61,'99',1,   1,   1,     6.054,    16.361,     0.000,     0.000,     0.000,     0.000,   1,1,0
    63,'1 ',1,   1,   1,     3.169,     1.045,     0.000,     0.000,     0.000,     0.000,   1,1,0
    64,'1 ',1,   1,   1,     1.584,     0.539,     0.000,     0.000,     0.000,     0.000,   1,1,0
    65,'1 ',1,   1,   1,     1.443,     0.472,     0.000,     0.000,     0.000,     0.000,   1,1,0
    66,'1 ',1,   1,   1,     4.983,     1.841,     0.000,     0.000,     0.000,     0.000,   1,1,0
    67,'1 ',1,   1,   1,     6.507,     2.515,     0.000,     0.000,     0.000,     0.000,   1,1,0
    68,'1 ',1,   1,   1,    11.597,    22.796,     0.000,     0.000,     0.000,     0.000,   1,1,0
    70,'1 ',1,   1,   1,    16.856,     4.720,     0.000,     0.000,     0.000,     0.000,   1,1,0
    75,'1 ',1,   2,   2,     8.091,    20.228,     0.000,     0.000,     0.000,     0.000,   1,1,0
    76,'1 ',1,   2,   2,    13.424,    24.657,     0.000,     0.000,     0.000,     0.000,   1,1,0
    77,'1 ',1,   2,   2,     8.091,    20.228,     0.000,     0.000,     0.000,     0.000,   1,1,0
    83,'1 ',1,   2,   2,     7.720,     1.780,     0.000,     0.000,     0.000,     0.000,   1,1,0
    84,'1 ',1,   2,   2,    17.470,     4.329,     0.000,     0.000,     0.000,     0.000,   1,1,0
    86,'1 ',1,   2,   2,     4.072,     1.632,     0.000,     0.000,     0.000,     0.000,   1,1,0
    86,'99',0,   2,   2,     9.663,     6.313,     0.000,     0.000,     0.000,     0.000,   1,1,0
    87,'1 ',1,   2,   2,     2.036,     0.856,     0.000,     0.000,     0.000,     0.000,   1,1,0
    88,'1 ',1,   2,   2,     4.470,     0.432,     0.000,     0.000,     0.000,     0.000,   1,1,0
    89,'1 ',1,   2,   2,     8.421,     3.270,     0.000,     0.000,     0.000,     0.000,   1,1,0
    90,'1 ',1,   2,   2,     2.448,     0.357,     0.000,     0.000,     0.000,     0.000,   1,1,0
    91,'1 ',1,   2,   2,     2.387,     0.782,     0.000,     0.000,     0.000,     0.000,   1,1,0
    92,'1 ',1,   2,   2,    12.959,    22.183,     0.000,     0.000,     0.000,     0.000,   1,1,0
    94,'1 ',1,   2,   2,     1.544,     0.566,     0.000,     0.000,     0.000,     0.000,   1,1,0
    95,'1 ',1,   2,   2,     3.162,     1.288,     0.000,     0.000,     0.000,     0.000,   1,1,0
    96,'1 ',1,   2,   2,     0.067,    -0.533,     0.000,     0.000,     0.000,     0.000,   1,1,0
    97,'1 ',1,   2,   2,     0.067,     0.034,     0.000,     0.000,     0.000,     0.000,   1,1,0
    97,'99',1,   2,   2,     3.692,     1.293,     0.000,     0.000,     0.000,     0.000,   1,1,0
    98,'1 ',1,   2,   2,     2.029,     3.378,     0.000,     0.000,     0.000,     0.000,   1,1,0
    98,'99',1,   2,   2,    11.613,    13.830,     0.000,     0.000,     0.000,     0.000,   1,1,0
    99,'1 ',1,   2,   2,     0.007,     0.007,     0.000,     0.000,     0.000,     0.000,   1,1,0
    99,'99',1,   2,   2,     8.466,     6.244,     0.000,     0.000,     0.000,     0.000,   1,1,0
   100,'1 ',1,   2,   2,     8.705,     3.196,     0.000,     0.000,     0.000,     0.000,   1,1,0
   101,'1 ',1,   2,   2,     6.318,     2.555,     0.000,     0.000,     0.000,     0.000,   1,1,0
   102,'1 ',1,   2,   2,     9.547,     3.836,     0.000,     0.000,     0.000,     0.000,   1,1,0
   103,'1 ',1,   2,   2,     7.686,     2.522,     0.000,     0.000,     0.000,     0.000,   1,1,0
   104,'1 ',1,   2,   2,     7.019,     2.562,     0.000,     0.000,     0.000,     0.000,   1,1,0
   107,'1 ',1,   2,   2,     3.702,     0.432,     0.000,     0.000,     0.000,     0.000,   1,1,0
   108,'1 ',1,   2,   2,     4.632,     1.349,     0.000,     0.000,     0.000,     0.000,   1,1,0
   109,'1 ',1,   2,   2,     3.789,     1.564,     0.000,     0.000,     0.000,     0.000,   1,1,0
   110,'1 ',1,   2,   2,     2.805,     1.139,     0.000,     0.000,     0.000,     0.000,   1,1,0
   111,'1 ',1,   2,   2,     0.984,     0.357,     0.000,     0.000,     0.000,     0.000,   1,1,0
   112,'1 ',1,   2,   2,     1.207,     0.512,     0.000,     0.000,     0.000,     0.000,   1,1,0
   113,'1 ',1,   2,   2,     1.126,     0.499,     0.000,     0.000,     0.000,     0.000,   1,1,0
   114,'1 ',1,   2,   2,     2.097,     0.580,     0.000,     0.000,     0.000,     0.000,   1,1,0
   115,'1 ',1,   2,   2,     3.216,     0.364,     0.000,     0.000,     0.000,     0.000,   1,1,0
   116,'1 ',1,   2,   2,     4.774,     1.207,     0.000,     0.000,     0.000,     0.000,   1,1,0
   117,'1 ',1,   2,   2,     7.720,     3.129,     0.000,     0.000,     0.000,     0.000,   1,1,0
   118,'1 ',1,   2,   2,     5.684,     2.272,     0.000,     0.000,     0.000,     0.000,   1,1,0
   119,'1 ',1,   2,   2,     4.565,    -1.146,     0.000,     0.000,     0.000,     0.000,   1,1,0
   120,'1 ',1,   2,   2,    14.746,     8.536,     0.000,     0.000,     0.000,     0.000,   1,1,0
   121,'1 ',1,   2,   2,    16.843,    15.636,     0.000,     0.000,     0.000,     0.000,   1,1,0
   122,'1 ',1,   2,   2,     9.824,     2.845,     0.000,     0.000,     0.000,     0.000,   1,1,0
   123,'1 ',1,   2,   2,    10.876,     3.196,     0.000,     0.000,     0.000,     0.000,   1,1,0
   124,'1 ',1,   2,   2,     3.600,     1.193,     0.000,     0.000,     0.000,     0.000,   1,1,0
   125,'1 ',1,   2,   2,     3.823,     3.938,     0.000,     0.000,     0.000,     0.000,   1,1,0
   126,'1 ',1,   2,   2,     5.192,     2.131,     0.000,     0.000,     0.000,     0.000,   1,1,0
   128,'1 ',1,   2,   2,     4.989,     1.713,     0.000,     0.000,     0.000,     0.000,   1,1,0
   129,'1 ',1,   2,   2,     0.809,     0.317,     0.000,     0.000,     0.000,     0.000,   1,1,0
   130,'1 ',1,   2,   2,     3.857,     1.564,     0.000,     0.000,     0.000,     0.000,   1,1,0
   131,'1 ',1,   2,   2,     3.931,     1.564,     0.000,     0.000,     0.000,     0.000,   1,1,0
   132,'1 ',1,   2,   2,     4.214,     1.173,     0.000,     0.000,     0.000,     0.000,   1,1,0
   133,'1 ',1,   2,   2,     4.214,     1.173,     0.000,     0.000,     0.000,     0.000,   1,1,0
   134,'1 ',1,   2,   2,     0.425,     0.142,     0.000,     0.000,     0.000,     0.000,   1,1,0
   135,'1 ',1,   2,   2,     8.853,     3.560,     0.000,     0.000,     0.000,     0.000,   1,1,0
   136,'1 ',1,   2,   2,     6.318,     2.434,     0.000,     0.000,     0.000,     0.000,   1,1,0
   137,'1 ',1,   2,   2,     3.155,     1.281,     0.000,     0.000,     0.000,     0.000,   1,1,0
   138,'1 ',1,   2,   2,     4.356,     1.713,     0.000,     0.000,     0.000,     0.000,   1,1,0
   139,'1 ',1,   2,   2,    14.672,     4.113,     0.000,     0.000,     0.000,     0.000,   1,1,0
   140,'1 ',1,   2,   2,     1.402,     0.566,     0.000,     0.000,     0.000,     0.000,   1,1,0
   141,'1 ',1,   2,   2,     1.827,     0.708,     0.000,     0.000,     0.000,     0.000,   1,1,0
   142,'1 ',1,   2,   2,     2.737,     0.357,     0.000,     0.000,     0.000,     0.000,   1,1,0
   146,'1 ',1,   2,   2,     5.684,     2.063,     0.000,     0.000,     0.000,     0.000,   1,1,0
   147,'1 ',1,   2,   2,     2.528,     0.566,     0.000,     0.000,     0.000,     0.000,   1,1,0
   148,'1 ',1,   2,   2,    19.021,     6.965,     0.000,     0.000,     0.000,     0.000,   1,1,0
   149,'1 ',1,   2,   2,     1.052,     0.425,     0.000,     0.000,     0.000,     0.000,   1,1,0
   150,'1 ',1,   2,   2,   427.475,     0.000,     0.000,     0.000,     0.000,     0.000,   1,1,0
   151,'99',1,   3,   3,    54.951,    57.915,     0.000,     0.000,     0.000,     0.000,   1,1,0
   156,'99',0,   3,   3,   154.603,    71.724,     0.000,     0.000,     0.000,     0.000,   1,1,0
   162,'99',1,   3,   3,    23.406,    40.564,     0.000,     0.000,     0.000,     0.000,   1,1,0
   165,'1 ',1,   3,   3,     7.417,    26.970,     0.000,     0.000,     0.000,     0.000,   1,1,0
   166,'1 ',1,   3,   3,     3.371,     6.743,     0.000,     0.000,     0.000,     0.000,   1,1,0
   167,'1 ',1,   3,   3,     4.673,     2.097,     0.000,     0.000,     0.000,     0.000,   1,1,0
   168,'1 ',1,   3,   3,     9.878,     0.674,     0.000,     0.000,     0.000,     0.000,   1,1,0
   169,'1 ',1,   3,   3,     5.488,     0.890,     0.000,     0.000,     0.000,     0.000,   1,1,0
   170,'1 ',1,   3,   3,     9.554,     2.845,     0.000,     0.000,     0.000,     0.000,   1,1,0
   171,'1 ',1,   3,   3,     2.845,     0.674,     0.000,     0.000,     0.000,     0.000,   1,1,0
   172,'99',1,   3,   3,    88.940,    38.471,     0.000,     0.000,     0.000,     0.000,   1,1,0
   175,'1 ',1,   3,   3,     3.520,     1.423,     0.000,     0.000,     0.000,     0.000,   1,1,0
   176,'1 ',1,   3,   3,     1.760,     0.674,     0.000,     0.000,     0.000,     0.000,   1,1,0
   177,'1 ',1,   3,   3,     0.007,     0.007,     0.000,     0.000,     0.000,     0.000,   1,1,0
   178,'1 ',1,   3,   3,     0.007,     0.007,     0.000,     0.000,     0.000,     0.000,   1,1,0
   179,'1 ',1,   3,   3,    10.566,     3.520,     0.000,     0.000,     0.000,     0.000,   1,1,0
   180,'1 ',1,   3,   3,    11.314,     3.182,     0.000,     0.000,     0.000,     0.000,   1,1,0
   181,'1 ',1,   3,   3,     2.845,     0.337,     0.000,     0.000,     0.000,     0.000,   1,1,0
   182,'1 ',1,   3,   3,     7.316,     0.674,     0.000,     0.000,     0.000,     0.000,   1,1,0
   183,'1 ',1,   3,   3,     9.891,     2.097,     0.000,     0.000,     0.000,     0.000,   1,1,0
   184,'1 ',1,   3,   3,     5.084,     0.674,     0.000,     0.000,     0.000,     0.000,   1,1,0
   185,'1 ',1,   3,   3,     1.423,     0.337,     0.000,     0.000,     0.000,     0.000,   1,1,0
   186,'1 ',1,   3,   3,     3.863,     0.674,     0.000,     0.000,     0.000,     0.000,   1,1,0
   188,'1 ',1,   3,   3,     6.372,     1.760,     0.000,     0.000,     0.000,     0.000,   1,1,0
   189,'1 ',1,   3,   3,     2.845,     0.674,     0.000,     0.000,     0.000,     0.000,   1,1,0
   191,'1 ',1,   3,   3,    10.566,     1.760,     0.000,     0.000,     0.000,     0.000,   1,1,0
   192,'1 ',1,   3,   3,    13.411,     4.605,     0.000,     0.000,     0.000,     0.000,   1,1,0
   193,'1 ',1,   3,   3,     5.623,     1.827,     0.000,     0.000,     0.000,     0.000,   1,1,0
   194,'1 ',1,   3,   3,    11.314,     4.268,     0.000,     0.000,     0.000,     0.000,   1,1,0
   195,'1 ',1,   3,   3,     9.891,     2.097,     0.000,     0.000,     0.000,     0.000,   1,1,0
   196,'1 ',1,   3,   3,     3.520,     0.000,     0.000,     0.000,     0.000,     0.000,   1,1,0
   196,'99',1,   3,   3,     0.392,    -0.151,     0.000,     0.000,     0.000,     0.000,   1,1,0
   197,'1 ',1,   3,   3,     4.942,     1.423,     0.000,     0.000,     0.000,     0.000,   1,1,0
   198,'1 ',1,   3,   3,     3.520,     0.337,     0.000,     0.000,     0.000,     0.000,   1,1,0
   201,'1 ',1,   3,   3,     6.372,     0.674,     0.000,     0.000,     0.000,     0.000,   1,1,0
   202,'1 ',1,   3,   3,     5.623,     0.674,     0.000,     0.000,     0.000,     0.000,   1,1,0
   202,'99',1,   3,   3,     8.887,    -0.242,     0.000,     0.000,     0.000,     0.000,   1,1,0
   203,'1 ',1,   3,   3,     7.046,     0.674,     0.000,     0.000,     0.000,     0.000,   1,1,0
   204,'1 ',1,   3,   3,     5.623,     2.097,     0.000,     0.000,     0.000,     0.000,   1,1,0
   206,'1 ',1,   3,   3,     9.891,     2.097,     0.000,     0.000,     0.000,     0.000,   1,1,0
   207,'1 ',1,   3,   3,    20.524,     2.845,     0.000,     0.000,     0.000,     0.000,   1,1,0
   208,'1 ',1,   3,   3,    12.737,     3.182,     0.000,     0.000,     0.000,     0.000,   1,1,0
   209,'1 ',1,   3,   3,     7.788,     0.674,     0.000,     0.000,     0.000,     0.000,   1,1,0
   210,'1 ',1,   3,   3,    11.988,     2.845,     0.000,     0.000,     0.000,     0.000,   1,1,0
   212,'99',1,   3,   3,     0.179,    -1.016,     0.000,     0.000,     0.000,     0.000,   1,1,0
   213,'99',1,   3,   3,     2.049,    -0.580,     0.000,     0.000,     0.000,     0.000,   1,1,0
   218,'99',1,   4,   4,     9.023,    87.647,     0.000,     0.000,     0.000,     0.000,   1,1,0
   221,'99',0,   4,   4,    50.269,    14.410,     0.000,     0.000,     0.000,     0.000,   1,1,0
   222,'99',1,   4,   4,    66.043,    40.849,     0.000,     0.000,     0.000,     0.000,   1,1,0
   223,'1 ',1,   4,   4,     6.743,    29.667,     0.000,     0.000,     0.000,     0.000,   1,1,0
   224,'1 ',1,   4,   4,     6.743,    29.667,     0.000,     0.000,     0.000,     0.000,   1,1,0
   225,'1 ',1,   4,   4,    12.271,    25.089,     0.000,     0.000,     0.000,     0.000,   1,1,0
   225,'99',0,   4,   4,     4.862,  -115.845,     0.000,     0.000,     0.000,     0.000,   1,1,0
   226,'99',0,   4,   4,    40.753,   -19.411,     0.000,     0.000,     0.000,     0.000,   1,1,0
   227,'1 ',1,   4,   4,     0.000,    -0.533,     0.000,     0.000,     0.000,     0.000,   1,1,0
   228,'1 ',1,   4,   4,     0.000,    -0.533,     0.000,     0.000,     0.000,     0.000,   1,1,0
   229,'1 ',1,   4,   4,     2.448,     0.877,     0.000,     0.000,     0.000,     0.000,   1,1,0
   231,'99',1,   4,   4,    19.822,    -6.576,     0.000,     0.000,     0.000,     0.000,   1,1,0
   232,'99',0,   4,   4,    15.184,     4.564,     0.000,     0.000,     0.000,     0.000,   1,1,0
   233,'1 ',1,   4,   4,     7.201,     3.115,     0.000,     0.000,     0.000,     0.000,   1,1,0
   234,'1 ',1,   4,   4,     3.675,     2.771,     0.000,     0.000,     0.000,     0.000,   1,1,0
   235,'1 ',1,   4,   4,     0.142,     0.155,     0.000,     0.000,     0.000,     0.000,   1,1,0
   235,'99',1,   4,   4,    43.388,    10.533,     0.000,     0.000,     0.000,     0.000,   1,1,0
   236,'1 ',1,   4,   4,     1.079,    -0.364,     0.000,     0.000,     0.000,     0.000,   1,1,0
   238,'1 ',1,   4,   4,    38.432,    13.013,     0.000,     0.000,     0.000,     0.000,   1,1,0
   241,'99',1,   4,   4,    26.096,     5.378,     0.000,     0.000,     0.000,     0.000,   1,1,0
   242,'1 ',1,   4,   4,     0.796,     0.135,     0.000,     0.000,     0.000,     0.000,   1,1,0
   243,'99',1,   4,   4,    12.710,    -6.619,     0.000,     0.000,     0.000,     0.000,   1,1,0
   244,'1 ',1,   4,   4,     3.027,     1.011,     0.000,     0.000,     0.000,     0.000,   1,1,0
   246,'1 ',1,   4,   4,     6.743,    29.667,     0.000,     0.000,     0.000,     0.000,   1,1,0
...
0 / END OF LOAD DATA, BEGIN FIXED SHUNT DATA
     2,'99',1,     0.000,    -7.133
     4,'99',1,     0.000,    -9.601
     6,'99',1,     0.000,    41.987
    32,'99',1,     0.000,    -1.306
    39,'99',1,     0.000,    -0.488
    43,'99',1,     0.000,     3.712
    49,'99',1,     0.000,    -4.149
    53,'99',1,     0.000,   -61.980
    67,'99',1,     0.000,     3.708
    86,'99',1,     0.000,     6.325
    90,'99',1,     0.000,    -0.019
   153,'99',1,     0.000,   -11.354
   156,'99',1,     0.000,    75.294
   157,'99',1,     0.000,   -27.072
   158,'99',1,     0.000,  -322.112
   161,'99',1,     0.000,  -124.239
   221,'99',1,     0.000,    13.922
   225,'99',1,     0.000,  -110.360
   226,'99',1,     0.000,   -18.625
   232,'99',1,     0.000,     4.355
   245,'99',1,     0.000,   -10.356
   253,'99',1,     0.000,     6.238
   255,'99',1,     0.000,     7.309
   271,'99',1,     0.000,     5.929
   275,'99',1,     0.000,    84.787
   277,'99',1,     0.000,   110.690
   281,'99',1,     0.000,     2.151
   285,'99',1,     0.000,  -161.346
   309,'99',1,     0.000,    22.813
   348,'99',1,     0.000,   -12.059
   374,'99',1,     0.000,  -345.603
   466,'99',1,     0.000,  -104.053
   471,'99',1,     0.000,  -290.111
   478,'99',1,     0.000,    64.761
   577,'99',1,     0.000,    -7.123
   579,'99',1,     0.000,    -9.607
   580,'99',1,     0.000,  -102.360
   581,'99',1,     0.000,    47.641
   583,'99',1,     0.000,    -2.918
   585,'99',1,     0.000,    13.934
   589,'99',1,     0.000,     3.923
   623,'99',1,     0.000,     8.010
   624,'99',1,     0.000,    -7.008
   636,'99',1,     0.000,     0.009
   672,'99',1,     0.000,    12.795
   690,'99',1,     0.000,     6.841
   695,'99',1,     0.000,    16.470
   698,'99',1,     0.000,   160.079
   703,'99',1,     0.000,   -47.656
   718,'99',1,     0.000,   -21.734
   720,'99',1,     0.000,    20.121
   723,'99',1,     0.000,     8.700
   750,'99',1,     0.000,    13.261
   760,'99',1,     0.000,    64.443
   766,'99',1,     0.000,   115.888
   817,'99',1,     0.000,    11.465
   869,'99',1,     0.000,     5.172
   883,'99',1,     0.000,    11.098
   939,'99',1,     0.000,    11.802
   942,'99',1,     0.000,     7.486
   979,'99',1,     0.000,    14.306
   983,'99',1,     0.000,    -5.456
   995,'99',1,     0.000,    14.167
  1012,'99',1,     0.000,     2.712
  1013,'99',1,     0.000,   -10.135
  1054,'99',1,     0.000,     2.499
  1096,'99',1,     0.000,   -29.377
  1135,'99',1,     0.000,    16.277
  1226,'99',1,     0.000,   307.861
  1241,'99',1,     0.000,    -9.766
  1245,'99',1,     0.000,    28.800
  1266,'99',1,     0.000,     1.091
  1267,'99',1,     0.000,   -13.276
  1351,'99',1,     0.000,     9.622
  1359,'99',1,     0.000,    44.093
  1376,'99',1,     0.000,    62.250
  1377,'99',1,     0.000,    37.157
  1384,'99',1,     0.000,    -0.278
  1400,'99',1,     0.000,    13.892
  1495,'99',1,     0.000,    -1.174
  1496,'99',1,     0.000,    12.766
  1525,'99',1,     0.000,   -18.886
  1533,'99',1,     0.000,   -95.945
  1557,'99',1,     0.000,   -31.028
  1565,'99',1,     0.000,   -52.104
  1621,'99',1,     0.000,   -73.418
  1807,'99',1,     0.000,   -15.963
  1877,'99',1,     0.000,    -5.368
  1878,'99',1,     0.000,    12.724
  1880,'99',1,     0.000,    -5.367
  1923,'99',1,     0.000,    -9.083
  1951,'99',1,     0.000,     0.756
  1979,'99',1,     0.000,     0.624
  1998,'99',1,     0.000,     4.345
  1999,'99',1,     0.000,    17.297
  2083,'99',1,     0.000,    28.513
  2093,'99',1,     0.000,   103.474
  2095,'99',1,     0.000,   -13.183
  2109,'99',1,     0.000,   -38.789
  2111,'99',1,     0.000,    -2.161
  2129,'99',1,     0.000,    -0.089
  2146,'99',1,     0.000,   -19.827
  2172,'99',1,     0.000,     2.864
  2174,'99',1,     0.000,     9.100
  2179,'99',1,     0.000,    94.807
  2192,'99',1,     0.000,    -0.371
  2197,'99',1,     0.000,     5.815
  2224,'99',1,     0.000,     1.293
  2230,'99',1,     0.000,   -11.696
  2244,'99',1,     0.000,     3.661
  2246,'99',1,     0.000,   -32.703
  2251,'99',1,     0.000,    17.159
  2258,'99',1,     0.000,     9.498
  2262,'99',1,     0.000,    -0.418
  2269,'99',1,     0.000,  -361.197
  2287,'99',1,     0.000,   191.001
  2293,'99',1,     0.000,  -120.311
  2296,'99',1,     0.000,     2.477
  2297,'99',1,     0.000,  -130.348
  2309,'99',1,     0.000,    30.957
  2311,'99',1,     0.000,   -63.287
0 / END OF FIXED SHUNT DATA, BEGIN GENERATOR DATA
     9,'1 ',     0.000,     0.000,   230.625,  -230.625,1.00788,     0,   100.000, 0.00000E+0, 1.80000E-1, 0.00000E+0, 0.00000E+0,1.00000,0,  100.0,   320.312,   135.000,   1,1.0000,0,1,0,1,0,1,0,1
    10,'1 ',   421.363,   -10.993,   383.901,  -383.901,1.00358,     0,   100.000, 0.00000E+0, 1.80000E-1, 0.00000E+0, 0.00000E+0,1.00000,1,  100.0,   533.196,   171.516,   1,1.0000,0,1,0,1,0,1,0,1
    10,'2 ',   282.852,    -7.379,   399.796,  -399.796,1.00358,     0,   100.000, 0.00000E+0, 1.80000E-1, 0.00000E+0, 0.00000E+0,1.00000,1,  100.0,   555.273,   178.876,   1,1.0000,0,1,0,1,0,1,0,1
    11,'1 ',     0.000,     0.000,    16.000,   -16.000,1.00788,     0,   100.000, 0.00000E+0, 2.00000E-1, 0.00000E+0, 0.00000E+0,1.00000,0,  100.0,    55.000,    40.000,   1,1.0000,0,1,0,1,0,1,0,1
    11,'2 ',     0.000,     0.000,    49.500,   -49.500,1.00788,     0,   100.000, 0.00000E+0, 2.00000E-1, 0.00000E+0, 0.00000E+0,1.00000,0,  100.0,    68.750,    35.833,   1,1.0000,0,1,0,1,0,1,0,1
    12,'1 ',     0.000,     0.000,    49.500,   -49.500,1.00788,     0,   100.000, 0.00000E+0, 2.00000E-1, 0.00000E+0, 0.00000E+0,1.00000,0,  100.0,    68.750,    35.833,   1,1.0000,0,1,0,1,0,1,0,1
    20,'1 ',     0.000,     0.000,    16.667,   -16.667,1.02455,     0,   100.000, 0.00000E+0, 2.00000E-1, 0.00000E+0, 0.00000E+0,1.00000,0,  100.0,    50.000,    38.000,   1,1.0000,0,1,0,1,0,1,0,1
    24,'99',     0.083,    10.917,   650.000,  -650.000,1.00540,     0,   100.000, 0.00000E+0, 1.00000E+0, 0.00000E+0, 0.00000E+0,1.00000,1,  100.0,    93.131,     0.000,   1,1.0000,0,1,0,1,0,1,0,1
    25,'1 ',     0.000,     0.000,     8.000,    -8.000,1.02455,     0,   100.000, 0.00000E+0, 2.00000E-1, 0.00000E+0, 0.00000E+0,1.00000,0,  100.0,    24.000,     5.000,   1,1.0000,0,1,0,1,0,1,0,1
    25,'2 ',     0.000,     0.000,     5.667,    -5.667,1.02455,     0,   100.000, 0.00000E+0, 2.00000E-1, 0.00000E+0, 0.00000E+0,1.00000,0,  100.0,    17.000,     4.000,   1,1.0000,0,1,0,1,0,1,0,1
    26,'1 ',     0.000,     0.000,    13.500,   -13.500,1.00788,     0,   100.000, 0.00000E+0, 2.00000E-1, 0.00000E+0, 0.00000E+0,1.00000,0,  100.0,    18.750,     3.000,   1,1.0000,0,1,0,1,0,1,0,1
    26,'2 ',     0.000,     0.000,     5.000,    -5.000,1.00788,     0,   100.000, 0.00000E+0, 2.00000E-1, 0.00000E+0, 0.00000E+0,1.00000,0,  100.0,    15.000,     3.000,   1,1.0000,0,1,0,1,0,1,0,1
    26,'3 ',     0.000,     0.000,     5.000,    -5.000,1.00788,     0,   100.000, 0.00000E+0, 2.00000E-1, 0.00000E+0, 0.00000E+0,1.00000,0,  100.0,    15.000,     3.000,   1,1.0000,0,1,0,1,0,1,0,1
    32,'99',     6.013,    -1.370,    33.333,   -33.333,1.02382,     0,   100.000, 0.00000E+0, 1.00000E+0, 0.00000E+0, 0.00000E+0,1.00000,0,  100.0,   265.000,     6.013,   1,1.0000,0,1,0,1,0,1,0,1
    46,'1 ',     0.000,     0.000,     4.000,    -4.000,0.99759,     0,   100.000, 0.00000E+0, 2.00000E-1, 0.00000E+0, 0.00000E+0,1.00000,0,  100.0,    12.000,     0.000,   1,1.0000,0,1,0,1,0,1,0,1
    46,'2 ',    12.000,    10.800,    10.800,   -10.800,0.99759,     0,   100.000, 0.00000E+0, 2.00000E-1, 0.00000E+0, 0.00000E+0,1.00000,1,  100.0,    15.000,     0.000,   1,1.0000,0,1,0,1,0,1,0,1
    53,'99',    12.674,   -62.519,    33.333,   -33.333,1.00434,     0,   100.000, 0.00000E+0, 1.00000E+0, 0.00000E+0, 0.00000E+0,1.00000,0,  100.0,    27.674,    12.674,   1,1.0000,0,1,0,1,0,1,0,1
    67,'99',     3.326,     3.705,    33.333,   -33.333,1.00356,     0,   100.000, 0.00000E+0, 1.00000E+0, 0.00000E+0, 0.00000E+0,1.00000,0,  100.0,   268.000,     3.326,   1,1.0000,0,1,0,1,0,1,0,1
    68,'1 ',   240.994,     1.289,   230.625,  -230.625,1.00858,     0,   100.000, 0.00000E+0, 1.80000E-1, 0.00000E+0, 0.00000E+0,1.00000,1,  100.0,   320.312,   135.000,   1,1.0000,0,1,0,1,0,1,0,1
    75,'1 ',     0.000,     0.000,   184.500,  -184.500,1.00788,     0,   100.000, 0.00000E+0, 1.80000E-1, 0.00000E+0, 0.00000E+0,1.00000,0,  100.0,   256.250,   135.000,   1,1.0000,0,1,0,1,0,1,0,1
    76,'1 ',     0.000,     0.000,    74.000,   -74.000,1.00788,     0,   100.000, 0.00000E+0, 1.80000E-1, 0.00000E+0, 0.00000E+0,1.00000,0,  100.0,   222.000,    90.000,   1,1.0000,0,1,0,1,0,1,0,1
    76,'2 ',     0.000,     0.000,    68.333,   -68.333,1.00788,     0,   100.000, 0.00000E+0, 1.80000E-1, 0.00000E+0, 0.00000E+0,1.00000,0,  100.0,   205.000,   135.000,   1,1.0000,0,1,0,1,0,1,0,1
    76,'3 ',   232.000,   122.791,   208.800,  -208.800,1.00788,     0,   100.000, 0.00000E+0, 1.80000E-1, 0.00000E+0, 0.00000E+0,1.00000,1,  100.0,   290.000,   100.000,   1,1.0000,0,1,0,1,0,1,0,1
    77,'1 ',     0.000,     0.000,   225.000,  -225.000,1.00260,     0,   100.000, 0.00000E+0, 1.80000E-1, 0.00000E+0, 0.00000E+0,1.00000,0,  100.0,   312.500,    90.000,   1,1.0000,0,1,0,1,0,1,0,1
    77,'99',    94.944,    17.070,   650.000,  -650.000,1.00260,     0,   100.000, 0.00000E+0, 1.00000E+0, 0.00000E+0, 0.00000E+0,1.00000,1,  100.0,   309.292,     0.000,   1,1.0000,0,1,0,1,0,1,0,1
    78,'99',    52.785,   -91.605,   650.000,  -650.000,0.99160,     0,   100.000, 0.00000E+0, 1.00000E+0, 0.00000E+0, 0.00000E+0,1.00000,1,  100.0,   217.319,     0.000,   1,1.0000,0,1,0,1,0,1,0,1
    90,'99',    19.203,    -0.019,    33.333,   -33.333,0.99752,     0,   100.000, 0.00000E+0, 1.00000E+0, 0.00000E+0, 0.00000E+0,1.00000,0,  100.0,    34.203,    19.203,   1,1.0000,0,1,0,1,0,1,0,1
    92,'1 ',   142.800,    11.862,   199.800,  -199.800,1.00542,     0,   100.000, 0.00000E+0, 1.80000E-1, 0.00000E+0, 0.00000E+0,1.00000,1,  100.0,   277.500,    90.000,   1,1.0000,0,1,0,1,0,1,0,1
    95,'1 ',     0.000,     0.000,   258.300,  -258.300,1.00225,     0,   100.000, 0.00000E+0, 2.00000E-1, 0.00000E+0, 0.00000E+0,1.00000,0,  100.0,   358.750,     0.000,   1,1.0000,0,1,0,1,0,1,0,1
    96,'1 ',     0.000,     0.000,     0.333,    -0.333,1.02455,     0,   100.000, 0.00000E+0, 2.00000E-1, 0.00000E+0, 0.00000E+0,1.00000,0,  100.0,   274.000,     0.000,   1,1.0000,0,1,0,1,0,1,0,1
    98,'1 ',     0.000,     0.000,    59.287,   -59.287,1.00358,     0,   100.000, 0.00000E+0, 2.00000E-1, 0.00000E+0, 0.00000E+0,1.00000,0,  100.0,    82.344,    10.000,   1,1.0000,0,1,0,1,0,1,0,1
    98,'2 ',   267.000,   -44.419,   240.300,  -240.300,1.00358,     0,   100.000, 0.00000E+0, 2.00000E-1, 0.00000E+0, 0.00000E+0,1.00000,1,  100.0,   333.750,     2.000,   1,1.0000,0,1,0,1,0,1,0,1
    99,'1 ',   262.000,   -20.255,   235.800,  -235.800,1.00788,     0,   100.000, 0.00000E+0, 2.00000E-1, 0.00000E+0, 0.00000E+0,1.00000,1,  100.0,   327.500,     1.000,   1,1.0000,0,1,0,1,0,1,0,1
    99,'2 ',     0.000,     0.000,     9.667,    -9.667,1.00788,     0,   100.000, 0.00000E+0, 2.00000E-1, 0.00000E+0, 0.00000E+0,1.00000,0,  100.0,    36.000,    21.000,   1,1.0000,0,1,0,1,0,1,0,1
   112,'1 ',     0.000,     0.000,   250.200,  -250.200,1.00358,     0,   100.000, 0.00000E+0, 2.00000E-1, 0.00000E+0, 0.00000E+0,1.00000,0,  100.0,   347.500,     0.000,   1,1.0000,0,1,0,1,0,1,0,1
   112,'2 ',     0.000,     0.000,   259.200,  -259.200,1.00358,     0,   100.000, 0.00000E+0, 2.00000E-1, 0.00000E+0, 0.00000E+0,1.00000,0,  100.0,   360.000,     1.000,   1,1.0000,0,1,0,1,0,1,0,1
   120,'1 ',    20.000,    18.000,    18.000,   -18.000,0.98448,     0,   100.000, 0.00000E+0, 2.00000E-1, 0.00000E+0, 0.00000E+0,1.00000,1,  100.0,    25.000,     5.000,   1,1.0000,0,1,0,1,0,1,0,1
   124,'1 ',     0.000,     0.000,    22.333,   -22.333,1.02455,     0,   100.000, 0.00000E+0, 2.00000E-1, 0.00000E+0, 0.00000E+0,1.00000,0,  100.0,    67.000,    40.000,   1,1.0000,0,1,0,1,0,1,0,1
   125,'1 ',     0.000,     0.000,    58.500,   -58.500,1.00929,     0,   100.000, 0.00000E+0, 2.00000E-1, 0.00000E+0, 0.00000E+0,1.00000,0,  100.0,    81.250,    40.000,   1,1.0000,0,1,0,1,0,1,0,1
   127,'1 ',     0.000,     0.000,    27.900,   -27.900,1.00507,     0,   100.000, 0.00000E+0, 2.00000E-1, 0.00000E+0, 0.00000E+0,1.00000,0,  100.0,    38.750,     0.000,   1,1.0000,0,1,0,1,0,1,0,1
   128,'1 ',     0.000,     0.000,    27.900,   -27.900,1.00507,     0,   100.000, 0.00000E+0, 2.00000E-1, 0.00000E+0, 0.00000E+0,1.00000,0,  100.0,    38.750,     0.000,   1,1.0000,0,1,0,1,0,1,0,1
   135,'1 ',   286.000,   -47.348,   257.400,  -257.400,1.00718,     0,   100.000, 0.00000E+0, 2.00000E-1, 0.00000E+0, 0.00000E+0,1.00000,1,  100.0,   357.500,     1.000,   1,1.0000,0,1,0,1,0,1,0,1
   136,'1 ',     0.000,     0.000,     1.333,    -1.333,1.02455,     0,   100.000, 0.00000E+0, 2.00000E-1, 0.00000E+0, 0.00000E+0,1.00000,0,  100.0,   256.000,     1.000,   1,1.0000,0,1,0,1,0,1,0,1
   136,'2 ',     0.000,     0.000,     6.000,    -6.000,1.02455,     0,   100.000, 0.00000E+0, 2.00000E-1, 0.00000E+0, 0.00000E+0,1.00000,0,  100.0,    18.000,     3.000,   1,1.0000,0,1,0,1,0,1,0,1
   136,'3 ',     0.000,     0.000,    18.667,   -18.667,1.02455,     0,   100.000, 0.00000E+0, 2.00000E-1, 0.00000E+0, 0.00000E+0,1.00000,0,  100.0,    56.000,    10.000,   1,1.0000,0,1,0,1,0,1,0,1
   138,'1 ',     0.000,     0.000,   234.000,  -234.000,1.00788,     0,   100.000, 0.00000E+0, 2.00000E-1, 0.00000E+0, 0.00000E+0,1.00000,0,  100.0,   325.000,     0.000,   1,1.0000,0,1,0,1,0,1,0,1
   150,'1 ',   268.000,    15.537,   241.200,  -241.200,1.00794,     0,   100.000, 0.00000E+0, 1.80000E-1, 0.00000E+0, 0.00000E+0,1.00000,1,  100.0,   335.000,     0.000,   1,1.0000,0,1,0,1,0,1,0,1
   153,'99',   122.965,   -11.335,    33.333,   -33.333,0.99917,     0,   100.000, 0.00000E+0, 1.00000E+0, 0.00000E+0, 0.00000E+0,1.00000,0,  100.0,   137.965,   122.965,   1,1.0000,0,1,0,1,0,1,0,1
   157,'99',    38.537,   -25.154,    33.333,   -33.333,0.96379,     0,   100.000, 0.00000E+0, 1.00000E+0, 0.00000E+0, 0.00000E+0,1.00000,0,  100.0,    53.537,    38.537,   1,1.0000,0,1,0,1,0,1,0,1
   158,'99',   269.075,  -293.602,    33.333,   -33.333,0.95472,     0,   100.000, 0.00000E+0, 1.00000E+0, 0.00000E+0, 0.00000E+0,1.00000,0,  100.0,   284.075,   269.075,   1,1.0000,0,1,0,1,0,1,0,1
   161,'99',    27.024,  -118.604,    33.333,   -33.333,0.97706,     0,   100.000, 0.00000E+0, 1.00000E+0, 0.00000E+0, 0.00000E+0,1.00000,0,  100.0,    42.024,    27.024,   1,1.0000,0,1,0,1,0,1,0,1
   165,'1 ',     0.000,     0.000,   161.100,  -161.100,1.00224,     0,   100.000, 0.00000E+0, 1.80000E-1, 0.00000E+0, 0.00000E+0,1.00000,0,  100.0,   223.750,  -200.000,   1,1.0000,0,1,0,1,0,1,0,1
   165,'2 ',     0.000,     0.000,   161.100,  -161.100,1.00224,     0,   100.000, 0.00000E+0, 1.80000E-1, 0.00000E+0, 0.00000E+0,1.00000,0,  100.0,   223.750,  -200.000,   1,1.0000,0,1,0,1,0,1,0,1
   165,'3 ',     0.000,     0.000,   161.100,  -161.100,1.00224,     0,   100.000, 0.00000E+0, 1.80000E-1, 0.00000E+0, 0.00000E+0,1.00000,0,  100.0,   223.750,  -200.000,   1,1.0000,0,1,0,1,0,1,0,1
   166,'1 ',   179.000,    91.082,   161.100,  -161.100,1.00445,     0,   100.000, 0.00000E+0, 1.80000E-1, 0.00000E+0, 0.00000E+0,1.00000,1,  100.0,   223.750,  -200.000,   1,1.0000,0,1,0,1,0,1,0,1
   168,'1 ',    34.359,    49.500,    49.500,   -49.500,1.00081,     0,   100.000, 0.00000E+0, 2.00000E-1, 0.00000E+0, 0.00000E+0,1.00000,1,  100.0,    68.750,    26.000,   1,1.0000,0,1,0,1,0,1,0,1
   169,'1 ',     0.000,     0.000,    18.333,   -18.333,1.01909,     0,   100.000, 0.00000E+0, 2.00000E-1, 0.00000E+0, 0.00000E+0,1.00000,0,  100.0,    55.000,    26.000,   1,1.0000,0,1,0,1,0,1,0,1
   171,'1 ',     0.000,     0.000,   255.600,  -255.600,1.00718,     0,   100.000, 0.00000E+0, 2.00000E-1, 0.00000E+0, 0.00000E+0,1.00000,0,  100.0,   355.000,     0.000,   1,1.0000,0,1,0,1,0,1,0,1
   177,'1 ',     0.000,     0.000,    16.200,   -16.200,1.00718,     0,   100.000, 0.00000E+0, 2.00000E-1, 0.00000E+0, 0.00000E+0,1.00000,0,  100.0,    22.500,     0.000,   1,1.0000,0,1,0,1,0,1,0,1
   178,'1 ',    22.000,    10.653,    19.800,   -19.800,1.00788,     0,   100.000, 0.00000E+0, 2.00000E-1, 0.00000E+0, 0.00000E+0,1.00000,1,  100.0,    27.500,     0.000,   1,1.0000,0,1,0,1,0,1,0,1
   183,'1 ',   182.462,   -40.520,   235.800,  -235.800,1.00718,     0,   100.000, 0.00000E+0, 2.00000E-1, 0.00000E+0, 0.00000E+0,1.00000,1,  100.0,   327.500,     0.000,   1,1.0000,0,1,0,1,0,1,0,1
   185,'99',   151.392,   -20.943,   650.000,  -650.000,1.00980,     0,   100.000, 0.00000E+0, 1.00000E+0, 0.00000E+0, 0.00000E+0,1.00000,1,  100.0,   341.250,     0.000,   1,1.0000,0,1,0,1,0,1,0,1
   188,'1 ',   128.241,    29.634,   269.100,  -269.100,1.00788,     0,   100.000, 0.00000E+0, 2.00000E-1, 0.00000E+0, 0.00000E+0,1.00000,1,  100.0,   373.750,     1.000,   1,1.0000,0,1,0,1,0,1,0,1
   194,'1 ',     0.000,     0.000,   255.600,  -255.600,1.00718,     0,   100.000, 0.00000E+0, 2.00000E-1, 0.00000E+0, 0.00000E+0,1.00000,0,  100.0,   355.000,     0.000,   1,1.0000,0,1,0,1,0,1,0,1
   195,'1 ',   164.053,     1.725,   230.400,  -230.400,1.00788,     0,   100.000, 0.00000E+0, 2.00000E-1, 0.00000E+0, 0.00000E+0,1.00000,1,  100.0,   320.000,     0.000,   1,1.0000,0,1,0,1,0,1,0,1
   201,'1 ',    93.622,   -10.512,   261.900,  -261.900,1.00788,     0,   100.000, 0.00000E+0, 2.00000E-1, 0.00000E+0, 0.00000E+0,1.00000,1,  100.0,   363.750,     0.000,   1,1.0000,0,1,0,1,0,1,0,1
   207,'1 ',     0.000,     0.000,   264.600,  -264.600,1.00718,     0,   100.000, 0.00000E+0, 2.00000E-1, 0.00000E+0, 0.00000E+0,1.00000,0,  100.0,   367.500,     0.000,   1,1.0000,0,1,0,1,0,1,0,1
   209,'1 ',     0.000,     0.000,   234.900,  -234.900,1.00718,     0,   100.000, 0.00000E+0, 2.00000E-1, 0.00000E+0, 0.00000E+0,1.00000,0,  100.0,   326.250,     0.000,   1,1.0000,0,1,0,1,0,1,0,1
   217,'99',    50.591,    58.410,   650.000,  -650.000,0.99870,     0,   100.000, 0.00000E+0, 1.00000E+0, 0.00000E+0, 0.00000E+0,1.00000,1,  100.0,   213.769,     0.000,   1,1.0000,0,1,0,1,0,1,0,1
   223,'1 ',     0.000,     0.000,   241.893,  -241.893,1.00788,     0,   100.000, 0.00000E+0, 1.80000E-1, 0.00000E+0, 0.00000E+0,1.00000,0,  100.0,   335.963,   120.000,   1,1.0000,0,1,0,1,0,1,0,1
   224,'1 ',   268.750,   105.139,   241.875,  -241.875,1.00788,     0,   100.000, 0.00000E+0, 1.80000E-1, 0.00000E+0, 0.00000E+0,1.00000,1,  100.0,   335.938,   120.000,   1,1.0000,0,1,0,1,0,1,0,1
   225,'1 ',   256.250,   145.287,   230.625,  -230.625,1.00788,     0,   100.000, 0.00000E+0, 1.80000E-1, 0.00000E+0, 0.00000E+0,1.00000,1,  100.0,   320.312,   135.000,   1,1.0000,0,1,0,1,0,1,0,1
   227,'1 ',     0.000,     0.000,    45.000,   -45.000,1.01227,     0,   100.000, 0.00000E+0, 1.80000E-1, 0.00000E+0, 0.00000E+0,1.00000,0,  100.0,   135.000,  -135.000,   1,1.0000,0,1,0,1,0,1,0,1
   227,'2 ',     0.000,     0.000,    45.000,   -45.000,1.01227,     0,   100.000, 0.00000E+0, 1.80000E-1, 0.00000E+0, 0.00000E+0,1.00000,0,  100.0,   135.000,  -135.000,   1,1.0000,0,1,0,1,0,1,0,1
   228,'1 ',     0.000,     0.000,    45.000,   -45.000,1.01227,     0,   100.000, 0.00000E+0, 1.80000E-1, 0.00000E+0, 0.00000E+0,1.00000,0,  100.0,   135.000,  -135.000,   1,1.0000,0,1,0,1,0,1,0,1
   228,'2 ',     0.000,     0.000,    45.000,   -45.000,1.01227,     0,   100.000, 0.00000E+0, 1.80000E-1, 0.00000E+0, 0.00000E+0,1.00000,0,  100.0,   135.000,  -135.000,   1,1.0000,0,1,0,1,0,1,0,1
   235,'1 ',     0.000,     0.000,    16.667,   -16.667,1.02455,     0,   100.000, 0.00000E+0, 2.00000E-1, 0.00000E+0, 0.00000E+0,1.00000,0,  100.0,    50.000,    38.000,   1,1.0000,0,1,0,1,0,1,0,1
   235,'2 ',     0.000,     0.000,    16.667,   -16.667,1.02455,     0,   100.000, 0.00000E+0, 2.00000E-1, 0.00000E+0, 0.00000E+0,1.00000,0,  100.0,    50.000,    38.000,   1,1.0000,0,1,0,1,0,1,0,1
   235,'3 ',     0.000,     0.000,    16.667,   -16.667,1.02455,     0,   100.000, 0.00000E+0, 2.00000E-1, 0.00000E+0, 0.00000E+0,1.00000,0,  100.0,    50.000,    38.000,   1,1.0000,0,1,0,1,0,1,0,1
...